<?xml version="1.0" encoding="UTF-8"?>

<!-- generated on 2026-05-06 19:09:39 by Eclipse SUMO netconvert Version 1.24.0
<netconvertConfiguration xmlns:xsi="http://www.w3.org/2001/XMLSchema-instance" xsi:noNamespaceSchemaLocation="http://sumo.dlr.de/xsd/netconvertConfiguration.xsd">

    <input>
        <node-files value="sumo_files/realtime\nod.xml"/>
        <edge-files value="sumo_files/realtime\edg.xml"/>
        <type-files value="sumo_files/realtime\type.xml"/>
    </input>

    <output>
        <output-file value="sumo_files/realtime\grid_network.net.xml"/>
    </output>

</netconvertConfiguration>
-->

<net version="1.20" junctionCornerDetail="5" limitTurnSpeed="5.50" xmlns:xsi="http://www.w3.org/2001/XMLSchema-instance" xsi:noNamespaceSchemaLocation="http://sumo.dlr.de/xsd/net_file.xsd">

    <location netOffset="100.00,100.00" convBoundary="0.00,0.00,400.00,300.00" origBoundary="-100.00,-100.00,300.00,200.00" projParameter="!"/>

    <type id="2L45" numLanes="2" speed="12.50"/>

    <edge id=":b_east_0_2_0" function="internal">
        <lane id=":b_east_0_2_0_0" index="0" speed="3.65" length="4.67" shape="400.00,198.40 401.20,199.20 401.60,200.00 401.20,200.80 400.00,201.60"/>
    </edge>
    <edge id=":b_east_1_2_0" function="internal">
        <lane id=":b_east_1_2_0_0" index="0" speed="3.65" length="4.67" shape="400.00,98.40 401.20,99.20 401.60,100.00 401.20,100.80 400.00,101.60"/>
    </edge>
    <edge id=":b_north_0_0_0" function="internal">
        <lane id=":b_north_0_0_0_0" index="0" speed="3.65" length="4.67" shape="101.60,300.00 100.80,301.20 100.00,301.60 99.20,301.20 98.40,300.00"/>
    </edge>
    <edge id=":b_north_0_1_0" function="internal">
        <lane id=":b_north_0_1_0_0" index="0" speed="3.65" length="4.67" shape="201.60,300.00 200.80,301.20 200.00,301.60 199.20,301.20 198.40,300.00"/>
    </edge>
    <edge id=":b_north_0_2_0" function="internal">
        <lane id=":b_north_0_2_0_0" index="0" speed="3.65" length="4.67" shape="301.60,300.00 300.80,301.20 300.00,301.60 299.20,301.20 298.40,300.00"/>
    </edge>
    <edge id=":b_south_1_0_0" function="internal">
        <lane id=":b_south_1_0_0_0" index="0" speed="3.65" length="4.67" shape="98.40,0.00 99.20,-1.20 100.00,-1.60 100.80,-1.20 101.60,0.00"/>
    </edge>
    <edge id=":b_south_1_1_0" function="internal">
        <lane id=":b_south_1_1_0_0" index="0" speed="3.65" length="4.67" shape="198.40,0.00 199.20,-1.20 200.00,-1.60 200.80,-1.20 201.60,0.00"/>
    </edge>
    <edge id=":b_south_1_2_0" function="internal">
        <lane id=":b_south_1_2_0_0" index="0" speed="3.65" length="4.67" shape="298.40,0.00 299.20,-1.20 300.00,-1.60 300.80,-1.20 301.60,0.00"/>
    </edge>
    <edge id=":b_west_0_0_0" function="internal">
        <lane id=":b_west_0_0_0_0" index="0" speed="3.65" length="4.67" shape="0.00,201.60 -1.20,200.80 -1.60,200.00 -1.20,199.20 0.00,198.40"/>
    </edge>
    <edge id=":b_west_1_0_0" function="internal">
        <lane id=":b_west_1_0_0_0" index="0" speed="3.65" length="4.67" shape="0.00,101.60 -1.20,100.80 -1.60,100.00 -1.20,99.20 0.00,98.40"/>
    </edge>
    <edge id=":i_0_0_0" function="internal">
        <lane id=":i_0_0_0_0" index="0" speed="6.51" length="9.03" shape="95.20,210.40 94.85,207.95 93.80,206.20 92.05,205.15 89.60,204.80"/>
    </edge>
    <edge id=":i_0_0_1" function="internal">
        <lane id=":i_0_0_1_0" index="0" speed="12.50" length="20.80" shape="95.20,210.40 95.20,189.60"/>
        <lane id=":i_0_0_1_1" index="1" speed="12.50" length="20.80" shape="98.40,210.40 98.40,189.60"/>
    </edge>
    <edge id=":i_0_0_3" function="internal">
        <lane id=":i_0_0_3_0" index="0" speed="9.26" length="5.01" shape="98.40,210.40 99.11,205.44"/>
    </edge>
    <edge id=":i_0_0_4" function="internal">
        <lane id=":i_0_0_4_0" index="0" speed="3.65" length="1.44" shape="98.40,210.40 99.20,209.20"/>
    </edge>
    <edge id=":i_0_0_20" function="internal">
        <lane id=":i_0_0_20_0" index="0" speed="9.26" length="14.34" shape="99.11,205.44 99.15,205.15 101.40,201.40 105.15,199.15 110.40,198.40"/>
    </edge>
    <edge id=":i_0_0_21" function="internal">
        <lane id=":i_0_0_21_0" index="0" speed="3.65" length="3.23" shape="99.20,209.20 100.00,208.80 100.80,209.20 101.60,210.40"/>
    </edge>
    <edge id=":i_0_0_5" function="internal">
        <lane id=":i_0_0_5_0" index="0" speed="6.51" length="9.03" shape="110.40,204.80 107.95,205.15 106.20,206.20 105.15,207.95 104.80,210.40"/>
    </edge>
    <edge id=":i_0_0_6" function="internal">
        <lane id=":i_0_0_6_0" index="0" speed="12.50" length="20.80" shape="110.40,204.80 89.60,204.80"/>
        <lane id=":i_0_0_6_1" index="1" speed="12.50" length="20.80" shape="110.40,201.60 89.60,201.60"/>
    </edge>
    <edge id=":i_0_0_8" function="internal">
        <lane id=":i_0_0_8_0" index="0" speed="9.26" length="5.01" shape="110.40,201.60 105.44,200.89"/>
    </edge>
    <edge id=":i_0_0_9" function="internal">
        <lane id=":i_0_0_9_0" index="0" speed="3.65" length="1.44" shape="110.40,201.60 109.20,200.80"/>
    </edge>
    <edge id=":i_0_0_22" function="internal">
        <lane id=":i_0_0_22_0" index="0" speed="9.26" length="14.34" shape="105.44,200.89 105.15,200.85 101.40,198.60 99.15,194.85 98.40,189.60"/>
    </edge>
    <edge id=":i_0_0_23" function="internal">
        <lane id=":i_0_0_23_0" index="0" speed="3.65" length="3.23" shape="109.20,200.80 108.80,200.00 109.20,199.20 110.40,198.40"/>
    </edge>
    <edge id=":i_0_0_10" function="internal">
        <lane id=":i_0_0_10_0" index="0" speed="6.51" length="9.03" shape="104.80,189.60 105.15,192.05 106.20,193.80 107.95,194.85 110.40,195.20"/>
    </edge>
    <edge id=":i_0_0_11" function="internal">
        <lane id=":i_0_0_11_0" index="0" speed="12.50" length="20.80" shape="104.80,189.60 104.80,210.40"/>
        <lane id=":i_0_0_11_1" index="1" speed="12.50" length="20.80" shape="101.60,189.60 101.60,210.40"/>
    </edge>
    <edge id=":i_0_0_13" function="internal">
        <lane id=":i_0_0_13_0" index="0" speed="9.26" length="5.01" shape="101.60,189.60 100.89,194.56"/>
    </edge>
    <edge id=":i_0_0_14" function="internal">
        <lane id=":i_0_0_14_0" index="0" speed="3.65" length="1.44" shape="101.60,189.60 100.80,190.80"/>
    </edge>
    <edge id=":i_0_0_24" function="internal">
        <lane id=":i_0_0_24_0" index="0" speed="9.26" length="14.34" shape="100.89,194.56 100.85,194.85 98.60,198.60 94.85,200.85 89.60,201.60"/>
    </edge>
    <edge id=":i_0_0_25" function="internal">
        <lane id=":i_0_0_25_0" index="0" speed="3.65" length="3.23" shape="100.80,190.80 100.00,191.20 99.20,190.80 98.40,189.60"/>
    </edge>
    <edge id=":i_0_0_15" function="internal">
        <lane id=":i_0_0_15_0" index="0" speed="6.51" length="9.03" shape="89.60,195.20 92.05,194.85 93.80,193.80 94.85,192.05 95.20,189.60"/>
    </edge>
    <edge id=":i_0_0_16" function="internal">
        <lane id=":i_0_0_16_0" index="0" speed="12.50" length="20.80" shape="89.60,195.20 110.40,195.20"/>
        <lane id=":i_0_0_16_1" index="1" speed="12.50" length="20.80" shape="89.60,198.40 110.40,198.40"/>
    </edge>
    <edge id=":i_0_0_18" function="internal">
        <lane id=":i_0_0_18_0" index="0" speed="9.26" length="5.01" shape="89.60,198.40 94.56,199.11"/>
    </edge>
    <edge id=":i_0_0_19" function="internal">
        <lane id=":i_0_0_19_0" index="0" speed="3.65" length="1.44" shape="89.60,198.40 90.80,199.20"/>
    </edge>
    <edge id=":i_0_0_26" function="internal">
        <lane id=":i_0_0_26_0" index="0" speed="9.26" length="14.34" shape="94.56,199.11 94.85,199.15 98.60,201.40 100.85,205.15 101.60,210.40"/>
    </edge>
    <edge id=":i_0_0_27" function="internal">
        <lane id=":i_0_0_27_0" index="0" speed="3.65" length="3.23" shape="90.80,199.20 91.20,200.00 90.80,200.80 89.60,201.60"/>
    </edge>
    <edge id=":i_0_1_0" function="internal">
        <lane id=":i_0_1_0_0" index="0" speed="6.51" length="9.03" shape="195.20,210.40 194.85,207.95 193.80,206.20 192.05,205.15 189.60,204.80"/>
    </edge>
    <edge id=":i_0_1_1" function="internal">
        <lane id=":i_0_1_1_0" index="0" speed="12.50" length="20.80" shape="195.20,210.40 195.20,189.60"/>
        <lane id=":i_0_1_1_1" index="1" speed="12.50" length="20.80" shape="198.40,210.40 198.40,189.60"/>
    </edge>
    <edge id=":i_0_1_3" function="internal">
        <lane id=":i_0_1_3_0" index="0" speed="9.26" length="5.01" shape="198.40,210.40 199.11,205.44"/>
    </edge>
    <edge id=":i_0_1_4" function="internal">
        <lane id=":i_0_1_4_0" index="0" speed="3.65" length="1.44" shape="198.40,210.40 199.20,209.20"/>
    </edge>
    <edge id=":i_0_1_20" function="internal">
        <lane id=":i_0_1_20_0" index="0" speed="9.26" length="14.34" shape="199.11,205.44 199.15,205.15 201.40,201.40 205.15,199.15 210.40,198.40"/>
    </edge>
    <edge id=":i_0_1_21" function="internal">
        <lane id=":i_0_1_21_0" index="0" speed="3.65" length="3.23" shape="199.20,209.20 200.00,208.80 200.80,209.20 201.60,210.40"/>
    </edge>
    <edge id=":i_0_1_5" function="internal">
        <lane id=":i_0_1_5_0" index="0" speed="6.51" length="9.03" shape="210.40,204.80 207.95,205.15 206.20,206.20 205.15,207.95 204.80,210.40"/>
    </edge>
    <edge id=":i_0_1_6" function="internal">
        <lane id=":i_0_1_6_0" index="0" speed="12.50" length="20.80" shape="210.40,204.80 189.60,204.80"/>
        <lane id=":i_0_1_6_1" index="1" speed="12.50" length="20.80" shape="210.40,201.60 189.60,201.60"/>
    </edge>
    <edge id=":i_0_1_8" function="internal">
        <lane id=":i_0_1_8_0" index="0" speed="9.26" length="5.01" shape="210.40,201.60 205.44,200.89"/>
    </edge>
    <edge id=":i_0_1_9" function="internal">
        <lane id=":i_0_1_9_0" index="0" speed="3.65" length="1.44" shape="210.40,201.60 209.20,200.80"/>
    </edge>
    <edge id=":i_0_1_22" function="internal">
        <lane id=":i_0_1_22_0" index="0" speed="9.26" length="14.34" shape="205.44,200.89 205.15,200.85 201.40,198.60 199.15,194.85 198.40,189.60"/>
    </edge>
    <edge id=":i_0_1_23" function="internal">
        <lane id=":i_0_1_23_0" index="0" speed="3.65" length="3.23" shape="209.20,200.80 208.80,200.00 209.20,199.20 210.40,198.40"/>
    </edge>
    <edge id=":i_0_1_10" function="internal">
        <lane id=":i_0_1_10_0" index="0" speed="6.51" length="9.03" shape="204.80,189.60 205.15,192.05 206.20,193.80 207.95,194.85 210.40,195.20"/>
    </edge>
    <edge id=":i_0_1_11" function="internal">
        <lane id=":i_0_1_11_0" index="0" speed="12.50" length="20.80" shape="204.80,189.60 204.80,210.40"/>
        <lane id=":i_0_1_11_1" index="1" speed="12.50" length="20.80" shape="201.60,189.60 201.60,210.40"/>
    </edge>
    <edge id=":i_0_1_13" function="internal">
        <lane id=":i_0_1_13_0" index="0" speed="9.26" length="5.01" shape="201.60,189.60 200.89,194.56"/>
    </edge>
    <edge id=":i_0_1_14" function="internal">
        <lane id=":i_0_1_14_0" index="0" speed="3.65" length="1.44" shape="201.60,189.60 200.80,190.80"/>
    </edge>
    <edge id=":i_0_1_24" function="internal">
        <lane id=":i_0_1_24_0" index="0" speed="9.26" length="14.34" shape="200.89,194.56 200.85,194.85 198.60,198.60 194.85,200.85 189.60,201.60"/>
    </edge>
    <edge id=":i_0_1_25" function="internal">
        <lane id=":i_0_1_25_0" index="0" speed="3.65" length="3.23" shape="200.80,190.80 200.00,191.20 199.20,190.80 198.40,189.60"/>
    </edge>
    <edge id=":i_0_1_15" function="internal">
        <lane id=":i_0_1_15_0" index="0" speed="6.51" length="9.03" shape="189.60,195.20 192.05,194.85 193.80,193.80 194.85,192.05 195.20,189.60"/>
    </edge>
    <edge id=":i_0_1_16" function="internal">
        <lane id=":i_0_1_16_0" index="0" speed="12.50" length="20.80" shape="189.60,195.20 210.40,195.20"/>
        <lane id=":i_0_1_16_1" index="1" speed="12.50" length="20.80" shape="189.60,198.40 210.40,198.40"/>
    </edge>
    <edge id=":i_0_1_18" function="internal">
        <lane id=":i_0_1_18_0" index="0" speed="9.26" length="5.01" shape="189.60,198.40 194.56,199.11"/>
    </edge>
    <edge id=":i_0_1_19" function="internal">
        <lane id=":i_0_1_19_0" index="0" speed="3.65" length="1.44" shape="189.60,198.40 190.80,199.20"/>
    </edge>
    <edge id=":i_0_1_26" function="internal">
        <lane id=":i_0_1_26_0" index="0" speed="9.26" length="14.34" shape="194.56,199.11 194.85,199.15 198.60,201.40 200.85,205.15 201.60,210.40"/>
    </edge>
    <edge id=":i_0_1_27" function="internal">
        <lane id=":i_0_1_27_0" index="0" speed="3.65" length="3.23" shape="190.80,199.20 191.20,200.00 190.80,200.80 189.60,201.60"/>
    </edge>
    <edge id=":i_0_2_0" function="internal">
        <lane id=":i_0_2_0_0" index="0" speed="6.51" length="9.03" shape="295.20,210.40 294.85,207.95 293.80,206.20 292.05,205.15 289.60,204.80"/>
    </edge>
    <edge id=":i_0_2_1" function="internal">
        <lane id=":i_0_2_1_0" index="0" speed="12.50" length="20.80" shape="295.20,210.40 295.20,189.60"/>
        <lane id=":i_0_2_1_1" index="1" speed="12.50" length="20.80" shape="298.40,210.40 298.40,189.60"/>
    </edge>
    <edge id=":i_0_2_3" function="internal">
        <lane id=":i_0_2_3_0" index="0" speed="9.26" length="5.01" shape="298.40,210.40 299.11,205.44"/>
    </edge>
    <edge id=":i_0_2_4" function="internal">
        <lane id=":i_0_2_4_0" index="0" speed="3.65" length="1.44" shape="298.40,210.40 299.20,209.20"/>
    </edge>
    <edge id=":i_0_2_20" function="internal">
        <lane id=":i_0_2_20_0" index="0" speed="9.26" length="14.34" shape="299.11,205.44 299.15,205.15 301.40,201.40 305.15,199.15 310.40,198.40"/>
    </edge>
    <edge id=":i_0_2_21" function="internal">
        <lane id=":i_0_2_21_0" index="0" speed="3.65" length="3.23" shape="299.20,209.20 300.00,208.80 300.80,209.20 301.60,210.40"/>
    </edge>
    <edge id=":i_0_2_5" function="internal">
        <lane id=":i_0_2_5_0" index="0" speed="6.51" length="9.03" shape="310.40,204.80 307.95,205.15 306.20,206.20 305.15,207.95 304.80,210.40"/>
    </edge>
    <edge id=":i_0_2_6" function="internal">
        <lane id=":i_0_2_6_0" index="0" speed="12.50" length="20.80" shape="310.40,204.80 289.60,204.80"/>
        <lane id=":i_0_2_6_1" index="1" speed="12.50" length="20.80" shape="310.40,201.60 289.60,201.60"/>
    </edge>
    <edge id=":i_0_2_8" function="internal">
        <lane id=":i_0_2_8_0" index="0" speed="9.26" length="5.01" shape="310.40,201.60 305.44,200.89"/>
    </edge>
    <edge id=":i_0_2_9" function="internal">
        <lane id=":i_0_2_9_0" index="0" speed="3.65" length="1.44" shape="310.40,201.60 309.20,200.80"/>
    </edge>
    <edge id=":i_0_2_22" function="internal">
        <lane id=":i_0_2_22_0" index="0" speed="9.26" length="14.34" shape="305.44,200.89 305.15,200.85 301.40,198.60 299.15,194.85 298.40,189.60"/>
    </edge>
    <edge id=":i_0_2_23" function="internal">
        <lane id=":i_0_2_23_0" index="0" speed="3.65" length="3.23" shape="309.20,200.80 308.80,200.00 309.20,199.20 310.40,198.40"/>
    </edge>
    <edge id=":i_0_2_10" function="internal">
        <lane id=":i_0_2_10_0" index="0" speed="6.51" length="9.03" shape="304.80,189.60 305.15,192.05 306.20,193.80 307.95,194.85 310.40,195.20"/>
    </edge>
    <edge id=":i_0_2_11" function="internal">
        <lane id=":i_0_2_11_0" index="0" speed="12.50" length="20.80" shape="304.80,189.60 304.80,210.40"/>
        <lane id=":i_0_2_11_1" index="1" speed="12.50" length="20.80" shape="301.60,189.60 301.60,210.40"/>
    </edge>
    <edge id=":i_0_2_13" function="internal">
        <lane id=":i_0_2_13_0" index="0" speed="9.26" length="5.01" shape="301.60,189.60 300.89,194.56"/>
    </edge>
    <edge id=":i_0_2_14" function="internal">
        <lane id=":i_0_2_14_0" index="0" speed="3.65" length="1.44" shape="301.60,189.60 300.80,190.80"/>
    </edge>
    <edge id=":i_0_2_24" function="internal">
        <lane id=":i_0_2_24_0" index="0" speed="9.26" length="14.34" shape="300.89,194.56 300.85,194.85 298.60,198.60 294.85,200.85 289.60,201.60"/>
    </edge>
    <edge id=":i_0_2_25" function="internal">
        <lane id=":i_0_2_25_0" index="0" speed="3.65" length="3.23" shape="300.80,190.80 300.00,191.20 299.20,190.80 298.40,189.60"/>
    </edge>
    <edge id=":i_0_2_15" function="internal">
        <lane id=":i_0_2_15_0" index="0" speed="6.51" length="9.03" shape="289.60,195.20 292.05,194.85 293.80,193.80 294.85,192.05 295.20,189.60"/>
    </edge>
    <edge id=":i_0_2_16" function="internal">
        <lane id=":i_0_2_16_0" index="0" speed="12.50" length="20.80" shape="289.60,195.20 310.40,195.20"/>
        <lane id=":i_0_2_16_1" index="1" speed="12.50" length="20.80" shape="289.60,198.40 310.40,198.40"/>
    </edge>
    <edge id=":i_0_2_18" function="internal">
        <lane id=":i_0_2_18_0" index="0" speed="9.26" length="5.01" shape="289.60,198.40 294.56,199.11"/>
    </edge>
    <edge id=":i_0_2_19" function="internal">
        <lane id=":i_0_2_19_0" index="0" speed="3.65" length="1.44" shape="289.60,198.40 290.80,199.20"/>
    </edge>
    <edge id=":i_0_2_26" function="internal">
        <lane id=":i_0_2_26_0" index="0" speed="9.26" length="14.34" shape="294.56,199.11 294.85,199.15 298.60,201.40 300.85,205.15 301.60,210.40"/>
    </edge>
    <edge id=":i_0_2_27" function="internal">
        <lane id=":i_0_2_27_0" index="0" speed="3.65" length="3.23" shape="290.80,199.20 291.20,200.00 290.80,200.80 289.60,201.60"/>
    </edge>
    <edge id=":i_1_0_0" function="internal">
        <lane id=":i_1_0_0_0" index="0" speed="6.51" length="9.03" shape="95.20,110.40 94.85,107.95 93.80,106.20 92.05,105.15 89.60,104.80"/>
    </edge>
    <edge id=":i_1_0_1" function="internal">
        <lane id=":i_1_0_1_0" index="0" speed="12.50" length="20.80" shape="95.20,110.40 95.20,89.60"/>
        <lane id=":i_1_0_1_1" index="1" speed="12.50" length="20.80" shape="98.40,110.40 98.40,89.60"/>
    </edge>
    <edge id=":i_1_0_3" function="internal">
        <lane id=":i_1_0_3_0" index="0" speed="9.26" length="5.01" shape="98.40,110.40 99.11,105.44"/>
    </edge>
    <edge id=":i_1_0_4" function="internal">
        <lane id=":i_1_0_4_0" index="0" speed="3.65" length="1.44" shape="98.40,110.40 99.20,109.20"/>
    </edge>
    <edge id=":i_1_0_20" function="internal">
        <lane id=":i_1_0_20_0" index="0" speed="9.26" length="14.34" shape="99.11,105.44 99.15,105.15 101.40,101.40 105.15,99.15 110.40,98.40"/>
    </edge>
    <edge id=":i_1_0_21" function="internal">
        <lane id=":i_1_0_21_0" index="0" speed="3.65" length="3.23" shape="99.20,109.20 100.00,108.80 100.80,109.20 101.60,110.40"/>
    </edge>
    <edge id=":i_1_0_5" function="internal">
        <lane id=":i_1_0_5_0" index="0" speed="6.51" length="9.03" shape="110.40,104.80 107.95,105.15 106.20,106.20 105.15,107.95 104.80,110.40"/>
    </edge>
    <edge id=":i_1_0_6" function="internal">
        <lane id=":i_1_0_6_0" index="0" speed="12.50" length="20.80" shape="110.40,104.80 89.60,104.80"/>
        <lane id=":i_1_0_6_1" index="1" speed="12.50" length="20.80" shape="110.40,101.60 89.60,101.60"/>
    </edge>
    <edge id=":i_1_0_8" function="internal">
        <lane id=":i_1_0_8_0" index="0" speed="9.26" length="5.01" shape="110.40,101.60 105.44,100.89"/>
    </edge>
    <edge id=":i_1_0_9" function="internal">
        <lane id=":i_1_0_9_0" index="0" speed="3.65" length="1.44" shape="110.40,101.60 109.20,100.80"/>
    </edge>
    <edge id=":i_1_0_22" function="internal">
        <lane id=":i_1_0_22_0" index="0" speed="9.26" length="14.34" shape="105.44,100.89 105.15,100.85 101.40,98.60 99.15,94.85 98.40,89.60"/>
    </edge>
    <edge id=":i_1_0_23" function="internal">
        <lane id=":i_1_0_23_0" index="0" speed="3.65" length="3.23" shape="109.20,100.80 108.80,100.00 109.20,99.20 110.40,98.40"/>
    </edge>
    <edge id=":i_1_0_10" function="internal">
        <lane id=":i_1_0_10_0" index="0" speed="6.51" length="9.03" shape="104.80,89.60 105.15,92.05 106.20,93.80 107.95,94.85 110.40,95.20"/>
    </edge>
    <edge id=":i_1_0_11" function="internal">
        <lane id=":i_1_0_11_0" index="0" speed="12.50" length="20.80" shape="104.80,89.60 104.80,110.40"/>
        <lane id=":i_1_0_11_1" index="1" speed="12.50" length="20.80" shape="101.60,89.60 101.60,110.40"/>
    </edge>
    <edge id=":i_1_0_13" function="internal">
        <lane id=":i_1_0_13_0" index="0" speed="9.26" length="5.01" shape="101.60,89.60 100.89,94.56"/>
    </edge>
    <edge id=":i_1_0_14" function="internal">
        <lane id=":i_1_0_14_0" index="0" speed="3.65" length="1.44" shape="101.60,89.60 100.80,90.80"/>
    </edge>
    <edge id=":i_1_0_24" function="internal">
        <lane id=":i_1_0_24_0" index="0" speed="9.26" length="14.34" shape="100.89,94.56 100.85,94.85 98.60,98.60 94.85,100.85 89.60,101.60"/>
    </edge>
    <edge id=":i_1_0_25" function="internal">
        <lane id=":i_1_0_25_0" index="0" speed="3.65" length="3.23" shape="100.80,90.80 100.00,91.20 99.20,90.80 98.40,89.60"/>
    </edge>
    <edge id=":i_1_0_15" function="internal">
        <lane id=":i_1_0_15_0" index="0" speed="6.51" length="9.03" shape="89.60,95.20 92.05,94.85 93.80,93.80 94.85,92.05 95.20,89.60"/>
    </edge>
    <edge id=":i_1_0_16" function="internal">
        <lane id=":i_1_0_16_0" index="0" speed="12.50" length="20.80" shape="89.60,95.20 110.40,95.20"/>
        <lane id=":i_1_0_16_1" index="1" speed="12.50" length="20.80" shape="89.60,98.40 110.40,98.40"/>
    </edge>
    <edge id=":i_1_0_18" function="internal">
        <lane id=":i_1_0_18_0" index="0" speed="9.26" length="5.01" shape="89.60,98.40 94.56,99.11"/>
    </edge>
    <edge id=":i_1_0_19" function="internal">
        <lane id=":i_1_0_19_0" index="0" speed="3.65" length="1.44" shape="89.60,98.40 90.80,99.20"/>
    </edge>
    <edge id=":i_1_0_26" function="internal">
        <lane id=":i_1_0_26_0" index="0" speed="9.26" length="14.34" shape="94.56,99.11 94.85,99.15 98.60,101.40 100.85,105.15 101.60,110.40"/>
    </edge>
    <edge id=":i_1_0_27" function="internal">
        <lane id=":i_1_0_27_0" index="0" speed="3.65" length="3.23" shape="90.80,99.20 91.20,100.00 90.80,100.80 89.60,101.60"/>
    </edge>
    <edge id=":i_1_1_0" function="internal">
        <lane id=":i_1_1_0_0" index="0" speed="6.51" length="9.03" shape="195.20,110.40 194.85,107.95 193.80,106.20 192.05,105.15 189.60,104.80"/>
    </edge>
    <edge id=":i_1_1_1" function="internal">
        <lane id=":i_1_1_1_0" index="0" speed="12.50" length="20.80" shape="195.20,110.40 195.20,89.60"/>
        <lane id=":i_1_1_1_1" index="1" speed="12.50" length="20.80" shape="198.40,110.40 198.40,89.60"/>
    </edge>
    <edge id=":i_1_1_3" function="internal">
        <lane id=":i_1_1_3_0" index="0" speed="9.26" length="5.01" shape="198.40,110.40 199.11,105.44"/>
    </edge>
    <edge id=":i_1_1_4" function="internal">
        <lane id=":i_1_1_4_0" index="0" speed="3.65" length="1.44" shape="198.40,110.40 199.20,109.20"/>
    </edge>
    <edge id=":i_1_1_20" function="internal">
        <lane id=":i_1_1_20_0" index="0" speed="9.26" length="14.34" shape="199.11,105.44 199.15,105.15 201.40,101.40 205.15,99.15 210.40,98.40"/>
    </edge>
    <edge id=":i_1_1_21" function="internal">
        <lane id=":i_1_1_21_0" index="0" speed="3.65" length="3.23" shape="199.20,109.20 200.00,108.80 200.80,109.20 201.60,110.40"/>
    </edge>
    <edge id=":i_1_1_5" function="internal">
        <lane id=":i_1_1_5_0" index="0" speed="6.51" length="9.03" shape="210.40,104.80 207.95,105.15 206.20,106.20 205.15,107.95 204.80,110.40"/>
    </edge>
    <edge id=":i_1_1_6" function="internal">
        <lane id=":i_1_1_6_0" index="0" speed="12.50" length="20.80" shape="210.40,104.80 189.60,104.80"/>
        <lane id=":i_1_1_6_1" index="1" speed="12.50" length="20.80" shape="210.40,101.60 189.60,101.60"/>
    </edge>
    <edge id=":i_1_1_8" function="internal">
        <lane id=":i_1_1_8_0" index="0" speed="9.26" length="5.01" shape="210.40,101.60 205.44,100.89"/>
    </edge>
    <edge id=":i_1_1_9" function="internal">
        <lane id=":i_1_1_9_0" index="0" speed="3.65" length="1.44" shape="210.40,101.60 209.20,100.80"/>
    </edge>
    <edge id=":i_1_1_22" function="internal">
        <lane id=":i_1_1_22_0" index="0" speed="9.26" length="14.34" shape="205.44,100.89 205.15,100.85 201.40,98.60 199.15,94.85 198.40,89.60"/>
    </edge>
    <edge id=":i_1_1_23" function="internal">
        <lane id=":i_1_1_23_0" index="0" speed="3.65" length="3.23" shape="209.20,100.80 208.80,100.00 209.20,99.20 210.40,98.40"/>
    </edge>
    <edge id=":i_1_1_10" function="internal">
        <lane id=":i_1_1_10_0" index="0" speed="6.51" length="9.03" shape="204.80,89.60 205.15,92.05 206.20,93.80 207.95,94.85 210.40,95.20"/>
    </edge>
    <edge id=":i_1_1_11" function="internal">
        <lane id=":i_1_1_11_0" index="0" speed="12.50" length="20.80" shape="204.80,89.60 204.80,110.40"/>
        <lane id=":i_1_1_11_1" index="1" speed="12.50" length="20.80" shape="201.60,89.60 201.60,110.40"/>
    </edge>
    <edge id=":i_1_1_13" function="internal">
        <lane id=":i_1_1_13_0" index="0" speed="9.26" length="5.01" shape="201.60,89.60 200.89,94.56"/>
    </edge>
    <edge id=":i_1_1_14" function="internal">
        <lane id=":i_1_1_14_0" index="0" speed="3.65" length="1.44" shape="201.60,89.60 200.80,90.80"/>
    </edge>
    <edge id=":i_1_1_24" function="internal">
        <lane id=":i_1_1_24_0" index="0" speed="9.26" length="14.34" shape="200.89,94.56 200.85,94.85 198.60,98.60 194.85,100.85 189.60,101.60"/>
    </edge>
    <edge id=":i_1_1_25" function="internal">
        <lane id=":i_1_1_25_0" index="0" speed="3.65" length="3.23" shape="200.80,90.80 200.00,91.20 199.20,90.80 198.40,89.60"/>
    </edge>
    <edge id=":i_1_1_15" function="internal">
        <lane id=":i_1_1_15_0" index="0" speed="6.51" length="9.03" shape="189.60,95.20 192.05,94.85 193.80,93.80 194.85,92.05 195.20,89.60"/>
    </edge>
    <edge id=":i_1_1_16" function="internal">
        <lane id=":i_1_1_16_0" index="0" speed="12.50" length="20.80" shape="189.60,95.20 210.40,95.20"/>
        <lane id=":i_1_1_16_1" index="1" speed="12.50" length="20.80" shape="189.60,98.40 210.40,98.40"/>
    </edge>
    <edge id=":i_1_1_18" function="internal">
        <lane id=":i_1_1_18_0" index="0" speed="9.26" length="5.01" shape="189.60,98.40 194.56,99.11"/>
    </edge>
    <edge id=":i_1_1_19" function="internal">
        <lane id=":i_1_1_19_0" index="0" speed="3.65" length="1.44" shape="189.60,98.40 190.80,99.20"/>
    </edge>
    <edge id=":i_1_1_26" function="internal">
        <lane id=":i_1_1_26_0" index="0" speed="9.26" length="14.34" shape="194.56,99.11 194.85,99.15 198.60,101.40 200.85,105.15 201.60,110.40"/>
    </edge>
    <edge id=":i_1_1_27" function="internal">
        <lane id=":i_1_1_27_0" index="0" speed="3.65" length="3.23" shape="190.80,99.20 191.20,100.00 190.80,100.80 189.60,101.60"/>
    </edge>
    <edge id=":i_1_2_0" function="internal">
        <lane id=":i_1_2_0_0" index="0" speed="6.51" length="9.03" shape="295.20,110.40 294.85,107.95 293.80,106.20 292.05,105.15 289.60,104.80"/>
    </edge>
    <edge id=":i_1_2_1" function="internal">
        <lane id=":i_1_2_1_0" index="0" speed="12.50" length="20.80" shape="295.20,110.40 295.20,89.60"/>
        <lane id=":i_1_2_1_1" index="1" speed="12.50" length="20.80" shape="298.40,110.40 298.40,89.60"/>
    </edge>
    <edge id=":i_1_2_3" function="internal">
        <lane id=":i_1_2_3_0" index="0" speed="9.26" length="5.01" shape="298.40,110.40 299.11,105.44"/>
    </edge>
    <edge id=":i_1_2_4" function="internal">
        <lane id=":i_1_2_4_0" index="0" speed="3.65" length="1.44" shape="298.40,110.40 299.20,109.20"/>
    </edge>
    <edge id=":i_1_2_20" function="internal">
        <lane id=":i_1_2_20_0" index="0" speed="9.26" length="14.34" shape="299.11,105.44 299.15,105.15 301.40,101.40 305.15,99.15 310.40,98.40"/>
    </edge>
    <edge id=":i_1_2_21" function="internal">
        <lane id=":i_1_2_21_0" index="0" speed="3.65" length="3.23" shape="299.20,109.20 300.00,108.80 300.80,109.20 301.60,110.40"/>
    </edge>
    <edge id=":i_1_2_5" function="internal">
        <lane id=":i_1_2_5_0" index="0" speed="6.51" length="9.03" shape="310.40,104.80 307.95,105.15 306.20,106.20 305.15,107.95 304.80,110.40"/>
    </edge>
    <edge id=":i_1_2_6" function="internal">
        <lane id=":i_1_2_6_0" index="0" speed="12.50" length="20.80" shape="310.40,104.80 289.60,104.80"/>
        <lane id=":i_1_2_6_1" index="1" speed="12.50" length="20.80" shape="310.40,101.60 289.60,101.60"/>
    </edge>
    <edge id=":i_1_2_8" function="internal">
        <lane id=":i_1_2_8_0" index="0" speed="9.26" length="5.01" shape="310.40,101.60 305.44,100.89"/>
    </edge>
    <edge id=":i_1_2_9" function="internal">
        <lane id=":i_1_2_9_0" index="0" speed="3.65" length="1.44" shape="310.40,101.60 309.20,100.80"/>
    </edge>
    <edge id=":i_1_2_22" function="internal">
        <lane id=":i_1_2_22_0" index="0" speed="9.26" length="14.34" shape="305.44,100.89 305.15,100.85 301.40,98.60 299.15,94.85 298.40,89.60"/>
    </edge>
    <edge id=":i_1_2_23" function="internal">
        <lane id=":i_1_2_23_0" index="0" speed="3.65" length="3.23" shape="309.20,100.80 308.80,100.00 309.20,99.20 310.40,98.40"/>
    </edge>
    <edge id=":i_1_2_10" function="internal">
        <lane id=":i_1_2_10_0" index="0" speed="6.51" length="9.03" shape="304.80,89.60 305.15,92.05 306.20,93.80 307.95,94.85 310.40,95.20"/>
    </edge>
    <edge id=":i_1_2_11" function="internal">
        <lane id=":i_1_2_11_0" index="0" speed="12.50" length="20.80" shape="304.80,89.60 304.80,110.40"/>
        <lane id=":i_1_2_11_1" index="1" speed="12.50" length="20.80" shape="301.60,89.60 301.60,110.40"/>
    </edge>
    <edge id=":i_1_2_13" function="internal">
        <lane id=":i_1_2_13_0" index="0" speed="9.26" length="5.01" shape="301.60,89.60 300.89,94.56"/>