<?xml version="1.0" encoding="UTF-8"?>

<!-- generated on 2026-05-13 17:45:01 by Eclipse SUMO netconvert Version 1.24.0
<netconvertConfiguration xmlns:xsi="http://www.w3.org/2001/XMLSchema-instance" xsi:noNamespaceSchemaLocation="http://sumo.dlr.de/xsd/netconvertConfiguration.xsd">

    <input>
        <node-files value="C:\Users\TPC\Desktop\Code\DATN\traffic-monitor\services\digital_twin\simulate_real_traffic\sumo\nod.xml"/>
        <edge-files value="C:\Users\TPC\Desktop\Code\DATN\traffic-monitor\services\digital_twin\simulate_real_traffic\sumo\edg.xml"/>
        <type-files value="C:\Users\TPC\Desktop\Code\DATN\traffic-monitor\services\digital_twin\simulate_real_traffic\sumo\type.xml"/>
    </input>

    <output>
        <output-file value="C:\Users\TPC\Desktop\Code\DATN\traffic-monitor\services\digital_twin\simulate_real_traffic\sumo\grid_network.net.xml"/>
    </output>

    <junctions>
        <no-turnarounds value="true"/>
    </junctions>

</netconvertConfiguration>
-->

<net version="1.20" junctionCornerDetail="5" limitTurnSpeed="5.50" xmlns:xsi="http://www.w3.org/2001/XMLSchema-instance" xsi:noNamespaceSchemaLocation="http://sumo.dlr.de/xsd/net_file.xsd">

    <location netOffset="15.00,15.00" convBoundary="0.00,0.00,230.00,130.00" origBoundary="-15.00,-15.00,215.00,115.00" projParameter="!"/>

    <type id="2L45" numLanes="2" speed="12.50"/>

    <edge id=":i_0_0_0" function="internal">
        <lane id=":i_0_0_0_0" index="0" speed="6.51" length="9.03" shape="10.20,125.40 9.85,122.95 8.80,121.20 7.05,120.15 4.60,119.80"/>
    </edge>
    <edge id=":i_0_0_1" function="internal">
        <lane id=":i_0_0_1_0" index="0" speed="12.50" length="20.80" shape="10.20,125.40 10.20,104.60"/>
        <lane id=":i_0_0_1_1" index="1" speed="12.50" length="20.80" shape="13.40,125.40 13.40,104.60"/>
    </edge>
    <edge id=":i_0_0_3" function="internal">
        <lane id=":i_0_0_3_0" index="0" speed="9.26" length="5.01" shape="13.40,125.40 14.11,120.44"/>
    </edge>
    <edge id=":i_0_0_16" function="internal">
        <lane id=":i_0_0_16_0" index="0" speed="9.26" length="14.34" shape="14.11,120.44 14.15,120.15 16.40,116.40 20.15,114.15 25.40,113.40"/>
    </edge>
    <edge id=":i_0_0_4" function="internal">
        <lane id=":i_0_0_4_0" index="0" speed="6.51" length="9.03" shape="25.40,119.80 22.95,120.15 21.20,121.20 20.15,122.95 19.80,125.40"/>
    </edge>
    <edge id=":i_0_0_5" function="internal">
        <lane id=":i_0_0_5_0" index="0" speed="12.50" length="20.80" shape="25.40,119.80 4.60,119.80"/>
        <lane id=":i_0_0_5_1" index="1" speed="12.50" length="20.80" shape="25.40,116.60 4.60,116.60"/>
    </edge>
    <edge id=":i_0_0_7" function="internal">
        <lane id=":i_0_0_7_0" index="0" speed="9.26" length="5.01" shape="25.40,116.60 20.44,115.89"/>
    </edge>
    <edge id=":i_0_0_17" function="internal">
        <lane id=":i_0_0_17_0" index="0" speed="9.26" length="14.34" shape="20.44,115.89 20.15,115.85 16.40,113.60 14.15,109.85 13.40,104.60"/>
    </edge>
    <edge id=":i_0_0_8" function="internal">
        <lane id=":i_0_0_8_0" index="0" speed="6.51" length="9.03" shape="19.80,104.60 20.15,107.05 21.20,108.80 22.95,109.85 25.40,110.20"/>
    </edge>
    <edge id=":i_0_0_9" function="internal">
        <lane id=":i_0_0_9_0" index="0" speed="12.50" length="20.80" shape="19.80,104.60 19.80,125.40"/>
        <lane id=":i_0_0_9_1" index="1" speed="12.50" length="20.80" shape="16.60,104.60 16.60,125.40"/>
    </edge>
    <edge id=":i_0_0_11" function="internal">
        <lane id=":i_0_0_11_0" index="0" speed="9.26" length="5.01" shape="16.60,104.60 15.89,109.56"/>
    </edge>
    <edge id=":i_0_0_18" function="internal">
        <lane id=":i_0_0_18_0" index="0" speed="9.26" length="14.34" shape="15.89,109.56 15.85,109.85 13.60,113.60 9.85,115.85 4.60,116.60"/>
    </edge>
    <edge id=":i_0_0_12" function="internal">
        <lane id=":i_0_0_12_0" index="0" speed="6.51" length="9.03" shape="4.60,110.20 7.05,109.85 8.80,108.80 9.85,107.05 10.20,104.60"/>
    </edge>
    <edge id=":i_0_0_13" function="internal">
        <lane id=":i_0_0_13_0" index="0" speed="12.50" length="20.80" shape="4.60,110.20 25.40,110.20"/>
        <lane id=":i_0_0_13_1" index="1" speed="12.50" length="20.80" shape="4.60,113.40 25.40,113.40"/>
    </edge>
    <edge id=":i_0_0_15" function="internal">
        <lane id=":i_0_0_15_0" index="0" speed="9.26" length="5.01" shape="4.60,113.40 9.56,114.11"/>
    </edge>
    <edge id=":i_0_0_19" function="internal">
        <lane id=":i_0_0_19_0" index="0" speed="9.26" length="14.34" shape="9.56,114.11 9.85,114.15 13.60,116.40 15.85,120.15 16.60,125.40"/>
    </edge>
    <edge id=":i_0_1_0" function="internal">
        <lane id=":i_0_1_0_0" index="0" speed="6.51" length="9.03" shape="110.20,125.40 109.85,122.95 108.80,121.20 107.05,120.15 104.60,119.80"/>
    </edge>
    <edge id=":i_0_1_1" function="internal">
        <lane id=":i_0_1_1_0" index="0" speed="12.50" length="20.80" shape="110.20,125.40 110.20,104.60"/>
        <lane id=":i_0_1_1_1" index="1" speed="12.50" length="20.80" shape="113.40,125.40 113.40,104.60"/>
    </edge>
    <edge id=":i_0_1_3" function="internal">
        <lane id=":i_0_1_3_0" index="0" speed="9.26" length="5.01" shape="113.40,125.40 114.11,120.44"/>
    </edge>
    <edge id=":i_0_1_16" function="internal">
        <lane id=":i_0_1_16_0" index="0" speed="9.26" length="14.34" shape="114.11,120.44 114.15,120.15 116.40,116.40 120.15,114.15 125.40,113.40"/>
    </edge>
    <edge id=":i_0_1_4" function="internal">
        <lane id=":i_0_1_4_0" index="0" speed="6.51" length="9.03" shape="125.40,119.80 122.95,120.15 121.20,121.20 120.15,122.95 119.80,125.40"/>
    </edge>
    <edge id=":i_0_1_5" function="internal">
        <lane id=":i_0_1_5_0" index="0" speed="12.50" length="20.80" shape="125.40,119.80 104.60,119.80"/>
        <lane id=":i_0_1_5_1" index="1" speed="12.50" length="20.80" shape="125.40,116.60 104.60,116.60"/>
    </edge>
    <edge id=":i_0_1_7" function="internal">
        <lane id=":i_0_1_7_0" index="0" speed="9.26" length="5.01" shape="125.40,116.60 120.44,115.89"/>
    </edge>
    <edge id=":i_0_1_17" function="internal">
        <lane id=":i_0_1_17_0" index="0" speed="9.26" length="14.34" shape="120.44,115.89 120.15,115.85 116.40,113.60 114.15,109.85 113.40,104.60"/>
    </edge>
    <edge id=":i_0_1_8" function="internal">
        <lane id=":i_0_1_8_0" index="0" speed="6.51" length="9.03" shape="119.80,104.60 120.15,107.05 121.20,108.80 122.95,109.85 125.40,110.20"/>
    </edge>
    <edge id=":i_0_1_9" function="internal">
        <lane id=":i_0_1_9_0" index="0" speed="12.50" length="20.80" shape="119.80,104.60 119.80,125.40"/>
        <lane id=":i_0_1_9_1" index="1" speed="12.50" length="20.80" shape="116.60,104.60 116.60,125.40"/>
    </edge>
    <edge id=":i_0_1_11" function="internal">
        <lane id=":i_0_1_11_0" index="0" speed="9.26" length="5.01" shape="116.60,104.60 115.89,109.56"/>
    </edge>
    <edge id=":i_0_1_18" function="internal">
        <lane id=":i_0_1_18_0" index="0" speed="9.26" length="14.34" shape="115.89,109.56 115.85,109.85 113.60,113.60 109.85,115.85 104.60,116.60"/>
    </edge>
    <edge id=":i_0_1_12" function="internal">
        <lane id=":i_0_1_12_0" index="0" speed="6.51" length="9.03" shape="104.60,110.20 107.05,109.85 108.80,108.80 109.85,107.05 110.20,104.60"/>
    </edge>
    <edge id=":i_0_1_13" function="internal">
        <lane id=":i_0_1_13_0" index="0" speed="12.50" length="20.80" shape="104.60,110.20 125.40,110.20"/>
        <lane id=":i_0_1_13_1" index="1" speed="12.50" length="20.80" shape="104.60,113.40 125.40,113.40"/>
    </edge>
    <edge id=":i_0_1_15" function="internal">
        <lane id=":i_0_1_15_0" index="0" speed="9.26" length="5.01" shape="104.60,113.40 109.56,114.11"/>
    </edge>
    <edge id=":i_0_1_19" function="internal">
        <lane id=":i_0_1_19_0" index="0" speed="9.26" length="14.34" shape="109.56,114.11 109.85,114.15 113.60,116.40 115.85,120.15 116.60,125.40"/>
    </edge>
    <edge id=":i_0_2_0" function="internal">
        <lane id=":i_0_2_0_0" index="0" speed="6.51" length="9.03" shape="210.20,125.40 209.85,122.95 208.80,121.20 207.05,120.15 204.60,119.80"/>
    </edge>
    <edge id=":i_0_2_1" function="internal">
        <lane id=":i_0_2_1_0" index="0" speed="12.50" length="20.80" shape="210.20,125.40 210.20,104.60"/>
        <lane id=":i_0_2_1_1" index="1" speed="12.50" length="20.80" shape="213.40,125.40 213.40,104.60"/>
    </edge>
    <edge id=":i_0_2_3" function="internal">
        <lane id=":i_0_2_3_0" index="0" speed="9.26" length="5.01" shape="213.40,125.40 214.11,120.44"/>
    </edge>
    <edge id=":i_0_2_16" function="internal">
        <lane id=":i_0_2_16_0" index="0" speed="9.26" length="14.34" shape="214.11,120.44 214.15,120.15 216.40,116.40 220.15,114.15 225.40,113.40"/>
    </edge>
    <edge id=":i_0_2_4" function="internal">
        <lane id=":i_0_2_4_0" index="0" speed="6.51" length="9.03" shape="225.40,119.80 222.95,120.15 221.20,121.20 220.15,122.95 219.80,125.40"/>
    </edge>
    <edge id=":i_0_2_5" function="internal">
        <lane id=":i_0_2_5_0" index="0" speed="12.50" length="20.80" shape="225.40,119.80 204.60,119.80"/>
        <lane id=":i_0_2_5_1" index="1" speed="12.50" length="20.80" shape="225.40,116.60 204.60,116.60"/>
    </edge>
    <edge id=":i_0_2_7" function="internal">
        <lane id=":i_0_2_7_0" index="0" speed="9.26" length="5.01" shape="225.40,116.60 220.44,115.89"/>
    </edge>
    <edge id=":i_0_2_17" function="internal">
        <lane id=":i_0_2_17_0" index="0" speed="9.26" length="14.34" shape="220.44,115.89 220.15,115.85 216.40,113.60 214.15,109.85 213.40,104.60"/>
    </edge>
    <edge id=":i_0_2_8" function="internal">
        <lane id=":i_0_2_8_0" index="0" speed="6.51" length="9.03" shape="219.80,104.60 220.15,107.05 221.20,108.80 222.95,109.85 225.40,110.20"/>
    </edge>
    <edge id=":i_0_2_9" function="internal">
        <lane id=":i_0_2_9_0" index="0" speed="12.50" length="20.80" shape="219.80,104.60 219.80,125.40"/>
        <lane id=":i_0_2_9_1" index="1" speed="12.50" length="20.80" shape="216.60,104.60 216.60,125.40"/>
    </edge>
    <edge id=":i_0_2_11" function="internal">
        <lane id=":i_0_2_11_0" index="0" speed="9.26" length="5.01" shape="216.60,104.60 215.89,109.56"/>
    </edge>
    <edge id=":i_0_2_18" function="internal">
        <lane id=":i_0_2_18_0" index="0" speed="9.26" length="14.34" shape="215.89,109.56 215.85,109.85 213.60,113.60 209.85,115.85 204.60,116.60"/>
    </edge>
    <edge id=":i_0_2_12" function="internal">
        <lane id=":i_0_2_12_0" index="0" speed="6.51" length="9.03" shape="204.60,110.20 207.05,109.85 208.80,108.80 209.85,107.05 210.20,104.60"/>
    </edge>
    <edge id=":i_0_2_13" function="internal">
        <lane id=":i_0_2_13_0" index="0" speed="12.50" length="20.80" shape="204.60,110.20 225.40,110.20"/>
        <lane id=":i_0_2_13_1" index="1" speed="12.50" length="20.80" shape="204.60,113.40 225.40,113.40"/>
    </edge>
    <edge id=":i_0_2_15" function="internal">
        <lane id=":i_0_2_15_0" index="0" speed="9.26" length="5.01" shape="204.60,113.40 209.56,114.11"/>
    </edge>
    <edge id=":i_0_2_19" function="internal">
        <lane id=":i_0_2_19_0" index="0" speed="9.26" length="14.34" shape="209.56,114.11 209.85,114.15 213.60,116.40 215.85,120.15 216.60,125.40"/>
    </edge>
    <edge id=":i_1_0_0" function="internal">
        <lane id=":i_1_0_0_0" index="0" speed="6.51" length="9.03" shape="10.20,25.40 9.85,22.95 8.80,21.20 7.05,20.15 4.60,19.80"/>
    </edge>
    <edge id=":i_1_0_1" function="internal">
        <lane id=":i_1_0_1_0" index="0" speed="12.50" length="20.80" shape="10.20,25.40 10.20,4.60"/>
        <lane id=":i_1_0_1_1" index="1" speed="12.50" length="20.80" shape="13.40,25.40 13.40,4.60"/>
    </edge>
    <edge id=":i_1_0_3" function="internal">
        <lane id=":i_1_0_3_0" index="0" speed="9.26" length="5.01" shape="13.40,25.40 14.11,20.44"/>
    </edge>
    <edge id=":i_1_0_16" function="internal">
        <lane id=":i_1_0_16_0" index="0" speed="9.26" length="14.34" shape="14.11,20.44 14.15,20.15 16.40,16.40 20.15,14.15 25.40,13.40"/>
    </edge>
    <edge id=":i_1_0_4" function="internal">
        <lane id=":i_1_0_4_0" index="0" speed="6.51" length="9.03" shape="25.40,19.80 22.95,20.15 21.20,21.20 20.15,22.95 19.80,25.40"/>
    </edge>
    <edge id=":i_1_0_5" function="internal">
        <lane id=":i_1_0_5_0" index="0" speed="12.50" length="20.80" shape="25.40,19.80 4.60,19.80"/>
        <lane id=":i_1_0_5_1" index="1" speed="12.50" length="20.80" shape="25.40,16.60 4.60,16.60"/>
    </edge>
    <edge id=":i_1_0_7" function="internal">
        <lane id=":i_1_0_7_0" index="0" speed="9.26" length="5.01" shape="25.40,16.60 20.44,15.89"/>
    </edge>
    <edge id=":i_1_0_17" function="internal">
        <lane id=":i_1_0_17_0" index="0" speed="9.26" length="14.34" shape="20.44,15.89 20.15,15.85 16.40,13.60 14.15,9.85 13.40,4.60"/>
    </edge>
    <edge id=":i_1_0_8" function="internal">
        <lane id=":i_1_0_8_0" index="0" speed="6.51" length="9.03" shape="19.80,4.60 20.15,7.05 21.20,8.80 22.95,9.85 25.40,10.20"/>
    </edge>
    <edge id=":i_1_0_9" function="internal">
        <lane id=":i_1_0_9_0" index="0" speed="12.50" length="20.80" shape="19.80,4.60 19.80,25.40"/>
        <lane id=":i_1_0_9_1" index="1" speed="12.50" length="20.80" shape="16.60,4.60 16.60,25.40"/>
    </edge>
    <edge id=":i_1_0_11" function="internal">
        <lane id=":i_1_0_11_0" index="0" speed="9.26" length="5.01" shape="16.60,4.60 15.89,9.56"/>
    </edge>
    <edge id=":i_1_0_18" function="internal">
        <lane id=":i_1_0_18_0" index="0" speed="9.26" length="14.34" shape="15.89,9.56 15.85,9.85 13.60,13.60 9.85,15.85 4.60,16.60"/>
    </edge>
    <edge id=":i_1_0_12" function="internal">
        <lane id=":i_1_0_12_0" index="0" speed="6.51" length="9.03" shape="4.60,10.20 7.05,9.85 8.80,8.80 9.85,7.05 10.20,4.60"/>
    </edge>
    <edge id=":i_1_0_13" function="internal">
        <lane id=":i_1_0_13_0" index="0" speed="12.50" length="20.80" shape="4.60,10.20 25.40,10.20"/>
        <lane id=":i_1_0_13_1" index="1" speed="12.50" length="20.80" shape="4.60,13.40 25.40,13.40"/>
    </edge>
    <edge id=":i_1_0_15" function="internal">
        <lane id=":i_1_0_15_0" index="0" speed="9.26" length="5.01" shape="4.60,13.40 9.56,14.11"/>
    </edge>
    <edge id=":i_1_0_19" function="internal">
        <lane id=":i_1_0_19_0" index="0" speed="9.26" length="14.34" shape="9.56,14.11 9.85,14.15 13.60,16.40 15.85,20.15 16.60,25.40"/>
    </edge>
    <edge id=":i_1_1_0" function="internal">
        <lane id=":i_1_1_0_0" index="0" speed="6.51" length="9.03" shape="110.20,25.40 109.85,22.95 108.80,21.20 107.05,20.15 104.60,19.80"/>
    </edge>
    <edge id=":i_1_1_1" function="internal">
        <lane id=":i_1_1_1_0" index="0" speed="12.50" length="20.80" shape="110.20,25.40 110.20,4.60"/>
        <lane id=":i_1_1_1_1" index="1" speed="12.50" length="20.80" shape="113.40,25.40 113.40,4.60"/>
    </edge>
    <edge id=":i_1_1_3" function="internal">
        <lane id=":i_1_1_3_0" index="0" speed="9.26" length="5.01" shape="113.40,25.40 114.11,20.44"/>
    </edge>
    <edge id=":i_1_1_16" function="internal">
        <lane id=":i_1_1_16_0" index="0" speed="9.26" length="14.34" shape="114.11,20.44 114.15,20.15 116.40,16.40 120.15,14.15 125.40,13.40"/>
    </edge>
    <edge id=":i_1_1_4" function="internal">
        <lane id=":i_1_1_4_0" index="0" speed="6.51" length="9.03" shape="125.40,19.80 122.95,20.15 121.20,21.20 120.15,22.95 119.80,25.40"/>
    </edge>
    <edge id=":i_1_1_5" function="internal">
        <lane id=":i_1_1_5_0" index="0" speed="12.50" length="20.80" shape="125.40,19.80 104.60,19.80"/>
        <lane id=":i_1_1_5_1" index="1" speed="12.50" length="20.80" shape="125.40,16.60 104.60,16.60"/>
    </edge>
    <edge id=":i_1_1_7" function="internal">
        <lane id=":i_1_1_7_0" index="0" speed="9.26" length="5.01" shape="125.40,16.60 120.44,15.89"/>
    </edge>
    <edge id=":i_1_1_17" function="internal">
        <lane id=":i_1_1_17_0" index="0" speed="9.26" length="14.34" shape="120.44,15.89 120.15,15.85 116.40,13.60 114.15,9.85 113.40,4.60"/>
    </edge>
    <edge id=":i_1_1_8" function="internal">
        <lane id=":i_1_1_8_0" index="0" speed="6.51" length="9.03" shape="119.80,4.60 120.15,7.05 121.20,8.80 122.95,9.85 125.40,10.20"/>
    </edge>
    <edge id=":i_1_1_9" function="internal">
        <lane id=":i_1_1_9_0" index="0" speed="12.50" length="20.80" shape="119.80,4.60 119.80,25.40"/>
        <lane id=":i_1_1_9_1" index="1" speed="12.50" length="20.80" shape="116.60,4.60 116.60,25.40"/>
    </edge>
    <edge id=":i_1_1_11" function="internal">
        <lane id=":i_1_1_11_0" index="0" speed="9.26" length="5.01" shape="116.60,4.60 115.89,9.56"/>
    </edge>
    <edge id=":i_1_1_18" function="internal">
        <lane id=":i_1_1_18_0" index="0" speed="9.26" length="14.34" shape="115.89,9.56 115.85,9.85 113.60,13.60 109.85,15.85 104.60,16.60"/>
    </edge>
    <edge id=":i_1_1_12" function="internal">
        <lane id=":i_1_1_12_0" index="0" speed="6.51" length="9.03" shape="104.60,10.20 107.05,9.85 108.80,8.80 109.85,7.05 110.20,4.60"/>
    </edge>
    <edge id=":i_1_1_13" function="internal">
        <lane id=":i_1_1_13_0" index="0" speed="12.50" length="20.80" shape="104.60,10.20 125.40,10.20"/>
        <lane id=":i_1_1_13_1" index="1" speed="12.50" length="20.80" shape="104.60,13.40 125.40,13.40"/>
    </edge>
    <edge id=":i_1_1_15" function="internal">
        <lane id=":i_1_1_15_0" index="0" speed="9.26" length="5.01" shape="104.60,13.40 109.56,14.11"/>
    </edge>
    <edge id=":i_1_1_19" function="internal">
        <lane id=":i_1_1_19_0" index="0" speed="9.26" length="14.34" shape="109.56,14.11 109.85,14.15 113.60,16.40 115.85,20.15 116.60,25.40"/>
    </edge>
    <edge id=":i_1_2_0" function="internal">
        <lane id=":i_1_2_0_0" index="0" speed="6.51" length="9.03" shape="210.20,25.40 209.85,22.95 208.80,21.20 207.05,20.15 204.60,19.80"/>
    </edge>
    <edge id=":i_1_2_1" function="internal">
        <lane id=":i_1_2_1_0" index="0" speed="12.50" length="20.80" shape="210.20,25.40 210.20,4.60"/>
        <lane id=":i_1_2_1_1" index="1" speed="12.50" length="20.80" shape="213.40,25.40 213.40,4.60"/>
    </edge>
    <edge id=":i_1_2_3" function="internal">
        <lane id=":i_1_2_3_0" index="0" speed="9.26" length="5.01" shape="213.40,25.40 214.11,20.44"/>
    </edge>
    <edge id=":i_1_2_16" function="internal">
        <lane id=":i_1_2_16_0" index="0" speed="9.26" length="14.34" shape="214.11,20.44 214.15,20.15 216.40,16.40 220.15,14.15 225.40,13.40"/>
    </edge>
    <edge id=":i_1_2_4" function="internal">
        <lane id=":i_1_2_4_0" index="0" speed="6.51" length="9.03" shape="225.40,19.80 222.95,20.15 221.20,21.20 220.15,22.95 219.80,25.40"/>
    </edge>
    <edge id=":i_1_2_5" function="internal">
        <lane id=":i_1_2_5_0" index="0" speed="12.50" length="20.80" shape="225.40,19.80 204.60,19.80"/>
        <lane id=":i_1_2_5_1" index="1" speed="12.50" length="20.80" shape="225.40,16.60 204.60,16.60"/>
    </edge>
    <edge id=":i_1_2_7" function="internal">
        <lane id=":i_1_2_7_0" index="0" speed="9.26" length="5.01" shape="225.40,16.60 220.44,15.89"/>
    </edge>
    <edge id=":i_1_2_17" function="internal">
        <lane id=":i_1_2_17_0" index="0" speed="9.26" length="14.34" shape="220.44,15.89 220.15,15.85 216.40,13.60 214.15,9.85 213.40,4.60"/>
    </edge>
    <edge id=":i_1_2_8" function="internal">
        <lane id=":i_1_2_8_0" index="0" speed="6.51" length="9.03" shape="219.80,4.60 220.15,7.05 221.20,8.80 222.95,9.85 225.40,10.20"/>
    </edge>
    <edge id=":i_1_2_9" function="internal">
        <lane id=":i_1_2_9_0" index="0" speed="12.50" length="20.80" shape="219.80,4.60 219.80,25.40"/>
        <lane id=":i_1_2_9_1" index="1" speed="12.50" length="20.80" shape="216.60,4.60 216.60,25.40"/>
    </edge>
    <edge id=":i_1_2_11" function="internal">
        <lane id=":i_1_2_11_0" index="0" speed="9.26" length="5.01" shape="216.60,4.60 215.89,9.56"/>
    </edge>
    <edge id=":i_1_2_18" function="internal">
        <lane id=":i_1_2_18_0" index="0" speed="9.26" length="14.34" shape="215.89,9.56 215.85,9.85 213.60,13.60 209.85,15.85 204.60,16.60"/>
    </edge>
    <edge id=":i_1_2_12" function="internal">
        <lane id=":i_1_2_12_0" index="0" speed="6.51" length="9.03" shape="204.60,10.20 207.05,9.85 208.80,8.80 209.85,7.05 210.20,4.60"/>
    </edge>
    <edge id=":i_1_2_13" function="internal">
        <lane id=":i_1_2_13_0" index="0" speed="12.50" length="20.80" shape="204.60,10.20 225.40,10.20"/>
        <lane id=":i_1_2_13_1" index="1" speed="12.50" length="20.80" shape="204.60,13.40 225.40,13.40"/>
    </edge>
    <edge id=":i_1_2_15" function="internal">
        <lane id=":i_1_2_15_0" index="0" speed="9.26" length="5.01" shape="204.60,13.40 209.56,14.11"/>
    </edge>
    <edge id=":i_1_2_19" function="internal">
        <lane id=":i_1_2_19_0" index="0" speed="9.26" length="14.34" shape="209.56,14.11 209.85,14.15 213.60,16.40 215.85,20.15 216.60,25.40"/>
    </edge>

    <edge id="e_b_east_0_2_to_i_0_2" from="b_east_0_2" to="i_0_2" priority="-1" type="2L45">
        <lane id="e_b_east_0_2_to_i_0_2_0" index="0" speed="12.50" length="4.60" shape="230.00,119.80 225.40,119.80"/>
        <lane id="e_b_east_0_2_to_i_0_2_1" index="1" speed="12.50" length="4.60" shape="230.00,116.60 225.40,116.60"/>
    </edge>
    <edge id="e_b_east_1_2_to_i_1_2" from="b_east_1_2" to="i_1_2" priority="-1" type="2L45">
        <lane id="e_b_east_1_2_to_i_1_2_0" index="0" speed="12.50" length="4.60" shape="230.00,19.80 225.40,19.80"/>
        <lane id="e_b_east_1_2_to_i_1_2_1" index="1" speed="12.50" length="4.60" shape="230.00,16.60 225.40,16.60"/>
    </edge>
    <edge id="e_b_north_0_0_to_i_0_0" from="b_north_0_0" to="i_0_0" priority="-1" type="2L45">
        <lane id="e_b_north_0_0_to_i_0_0_0" index="0" speed="12.50" length="4.60" shape="10.20,130.00 10.20,125.40"/>
        <lane id="e_b_north_0_0_to_i_0_0_1" index="1" speed="12.50" length="4.60" shape="13.40,130.00 13.40,125.40"/>
    </edge>
    <edge id="e_b_north_0_1_to_i_0_1" from="b_north_0_1" to="i_0_1" priority="-1" type="2L45">
        <lane id="e_b_north_0_1_to_i_0_1_0" index="0" speed="12.50" length="4.60" shape="110.20,130.00 110.20,125.40"/>
        <lane id="e_b_north_0_1_to_i_0_1_1" index="1" speed="12.50" length="4.60" shape="113.40,130.00 113.40,125.40"/>
    </edge>
    <edge id="e_b_north_0_2_to_i_0_2" from="b_north_0_2" to="i_0_2" priority="-1" type="2L45">
        <lane id="e_b_north_0_2_to_i_0_2_0" index="0" speed="12.50" length="4.60" shape="210.20,130.00 210.20,125.40"/>
        <lane id="e_b_north_0_2_to_i_0_2_1" index="1" speed="12.50" length="4.60" shape="213.40,130.00 213.40,125.40"/>
    </edge>
    <edge id="e_b_south_1_0_to_i_1_0" from="b_south_1_0" to="i_1_0" priority="-1" type="2L45">
        <lane id="e_b_south_1_0_to_i_1_0_0" index="0" speed="12.50" length="4.60" shape="19.80,0.00 19.80,4.60"/>
        <lane id="e_b_south_1_0_to_i_1_0_1" index="1" speed="12.50" length="4.60" shape="16.60,0.00 16.60,4.60"/>
    </edge>
    <edge id="e_b_south_1_1_to_i_1_1" from="b_south_1_1" to="i_1_1" priority="-1" type="2L45">
        <lane id="e_b_south_1_1_to_i_1_1_0" index="0" speed="12.50" length="4.60" shape="119.80,0.00 119.80,4.60"/>
        <lane id="e_b_south_1_1_to_i_1_1_1" index="1" speed="12.50" length="4.60" shape="116.60,0.00 116.60,4.60"/>
    </edge>
    <edge id="e_b_south_1_2_to_i_1_2" from="b_south_1_2" to="i_1_2" priority="-1" type="2L45">
        <lane id="e_b_south_1_2_to_i_1_2_0" index="0" speed="12.50" length="4.60" shape="219.80,0.00 219.80,4.60"/>
        <lane id="e_b_south_1_2_to_i_1_2_1" index="1" speed="12.50" length="4.60" shape="216.60,0.00 216.60,4.60"/>
    </edge>
    <edge id="e_b_west_0_0_to_i_0_0" from="b_west_0_0" to="i_0_0" priority="-1" type="2L45">
        <lane id="e_b_west_0_0_to_i_0_0_0" index="0" speed="12.50" length="4.60" shape="0.00,110.20 4.60,110.20"/>
        <lane id="e_b_west_0_0_to_i_0_0_1" index="1" speed="12.50" length="4.60" shape="0.00,113.40 4.60,113.40"/>
    </edge>
    <edge id="e_b_west_1_0_to_i_1_0" from="b_west_1_0" to="i_1_0" priority="-1" type="2L45">
        <lane id="e_b_west_1_0_to_i_1_0_0" index="0" speed="12.50" length="4.60" shape="0.00,10.20 4.60,10.20"/>
        <lane id="e_b_west_1_0_to_i_1_0_1" index="1" speed="12.50" length="4.60" shape="0.00,13.40 4.60,13.40"/>
    </edge>
    <edge id="e_i_0_0_to_b_north_0_0" from="i_0_0" to="b_north_0_0" priority="-1" type="2L45">
        <lane id="e_i_0_0_to_b_north_0_0_0" index="0" speed="12.50" length="4.60" shape="19.80,125.40 19.80,130.00"/>
        <lane id="e_i_0_0_to_b_north_0_0_1" index="1" speed="12.50" length="4.60" shape="16.60,125.40 16.60,130.00"/>
    </edge>
    <edge id="e_i_0_0_to_b_west_0_0" from="i_0_0" to="b_west_0_0" priority="-1" type="2L45">
        <lane id="e_i_0_0_to_b_west_0_0_0" index="0" speed="12.50" length="4.60" shape="4.60,119.80 0.00,119.80"/>
        <lane id="e_i_0_0_to_b_west_0_0_1" index="1" speed="12.50" length="4.60" shape="4.60,116.60 0.00,116.60"/>
    </edge>
    <edge id="e_i_0_0_to_i_0_1" from="i_0_0" to="i_0_1" priority="-1" type="2L45">
        <lane id="e_i_0_0_to_i_0_1_0" index="0" speed="12.50" length="79.20" shape="25.40,110.20 104.60,110.20"/>
        <lane id="e_i_0_0_to_i_0_1_1" index="1" speed="12.50" length="79.20" shape="25.40,113.40 104.60,113.40"/>
    </edge>
    <edge id="e_i_0_0_to_i_1_0" from="i_0_0" to="i_1_0" priority="-1" type="2L45">
        <lane id="e_i_0_0_to_i_1_0_0" index="0" speed="12.50" length="79.20" shape="10.20,104.60 10.20,25.40"/>
        <lane id="e_i_0_0_to_i_1_0_1" index="1" speed="12.50" length="79.20" shape="13.40,104.60 13.40,25.40"/>
    </edge>
    <edge id="e_i_0_1_to_b_north_0_1" from="i_0_1" to="b_north_0_1" priority="-1" type="2L45">
        <lane id="e_i_0_1_to_b_north_0_1_0" index="0" speed="12.50" length="4.60" shape="119.80,125.40 119.80,130.00"/>
        <lane id="e_i_0_1_to_b_north_0_1_1" index="1" speed="12.50" length="4.60" shape="116.60,125.40 116.60,130.00"/>
    </edge>
    <edge id="e_i_0_1_to_i_0_0" from="i_0_1" to="i_0_0" priority="-1" type="2L45">
        <lane id="e_i_0_1_to_i_0_0_0" index="0" speed="12.50" length="79.20" shape="104.60,119.80 25.40,119.80"/>
        <lane id="e_i_0_1_to_i_0_0_1" index="1" speed="12.50" length="79.20" shape="104.60,116.60 25.40,116.60"/>
    </edge>
    <edge id="e_i_0_1_to_i_0_2" from="i_0_1" to="i_0_2" priority="-1" type="2L45">
        <lane id="e_i_0_1_to_i_0_2_0" index="0" speed="12.50" length="79.20" shape="125.40,110.20 204.60,110.20"/>
        <lane id="e_i_0_1_to_i_0_2_1" index="1" speed="12.50" length="79.20" shape="125.40,113.40 204.60,113.40"/>
    </edge>
    <edge id="e_i_0_1_to_i_1_1" from="i_0_1" to="i_1_1" priority="-1" type="2L45">
        <lane id="e_i_0_1_to_i_1_1_0" index="0" speed="12.50" length="79.20" shape="110.20,104.60 110.20,25.40"/>
        <lane id="e_i_0_1_to_i_1_1_1" index="1" speed="12.50" length="79.20" shape="113.40,104.60 113.40,25.40"/>
    </edge>
    <edge id="e_i_0_2_to_b_east_0_2" from="i_0_2" to="b_east_0_2" priority="-1" type="2L45">
        <lane id="e_i_0_2_to_b_east_0_2_0" index="0" speed="12.50" length="4.60" shape="225.40,110.20 230.00,110.20"/>
        <lane id="e_i_0_2_to_b_east_0_2_1" index="1" speed="12.50" length="4.60" shape="225.40,113.40 230.00,113.40"/>
    </edge>
    <edge id="e_i_0_2_to_b_north_0_2" from="i_0_2" to="b_north_0_2" priority="-1" type="2L45">
        <lane id="e_i_0_2_to_b_north_0_2_0" index="0" speed="12.50" length="4.60" shape="219.80,125.40 219.80,130.00"/>
        <lane id="e_i_0_2_to_b_north_0_2_1" index="1" speed="12.50" length="4.60" shape="216.60,125.40 216.60,130.00"/>
    </edge>
    <edge id="e_i_0_2_to_i_0_1" from="i_0_2" to="i_0_1" priority="-1" type="2L45">
        <lane id="e_i_0_2_to_i_0_1_0" index="0" speed="12.50" length="79.20" shape="204.60,119.80 125.40,119.80"/>
        <lane id="e_i_0_2_to_i_0_1_1" index="1" speed="12.50" length="79.20" shape="204.60,116.60 125.40,116.60"/>
    </edge>
    <edge id="e_i_0_2_to_i_1_2" from="i_0_2" to="i_1_2" priority="-1" type="2L45">
        <lane id="e_i_0_2_to_i_1_2_0" index="0" speed="12.50" length="79.20" shape="210.20,104.60 210.20,25.40"/>
        <lane id="e_i_0_2_to_i_1_2_1" index="1" speed="12.50" length="79.20" shape="213.40,104.60 213.40,25.40"/>
    </edge>
    <edge id="e_i_1_0_to_b_south_1_0" from="i_1_0" to="b_south_1_0" priority="-1" type="2L45">
        <lane id="e_i_1_0_to_b_south_1_0_0" index="0" speed="12.50" length="4.60" shape="10.20,4.60 10.20,0.00"/>
        <lane id="e_i_1_0_to_b_south_1_0_1" index="1" speed="12.50" length="4.60" shape="13.40,4.60 13.40,0.00"/>
    </edge>
    <edge id="e_i_1_0_to_b_west_1_0" from="i_1_0" to="b_west_1_0" priority="-1" type="2L45">
        <lane id="e_i_1_0_to_b_west_1_0_0" index="0" speed="12.50" length="4.60" shape="4.60,19.80 0.00,19.80"/>
        <lane id="e_i_1_0_to_b_west_1_0_1" index="1" speed="12.50" length="4.60" shape="4.60,16.60 0.00,16.60"/>
    </edge>
    <edge id="e_i_1_0_to_i_0_0" from="i_1_0" to="i_0_0" priority="-1" type="2L45">
        <lane id="e_i_1_0_to_i_0_0_0" index="0" speed="12.50" length="79.20" shape="19.80,25.40 19.80,104.60"/>
        <lane id="e_i_1_0_to_i_0_0_1" index="1" speed="12.50" length="79.20" shape="16.60,25.40 16.60,104.60"/>
    </edge>
    <edge id="e_i_1_0_to_i_1_1" from="i_1_0" to="i_1_1" priority="-1" type="2L45">
        <lane id="e_i_1_0_to_i_1_1_0" index="0" speed="12.50" length="79.20" shape="25.40,10.20 104.60,10.20"/>
        <lane id="e_i_1_0_to_i_1_1_1" index="1" speed="12.50" length="79.20" shape="25.40,13.40 104.60,13.40"/>
    </edge>