<?xml version="1.0" encoding="UTF-8"?>

<!-- generated on 2026-05-06 18:33:37 by Eclipse SUMO netconvert Version 1.24.0
<netconvertConfiguration xmlns:xsi="http://www.w3.org/2001/XMLSchema-instance" xsi:noNamespaceSchemaLocation="http://sumo.dlr.de/xsd/netconvertConfiguration.xsd">

    <input>
        <node-files value="sumo_files/realtime\nod.xml"/>
        <edge-files value="sumo_files/realtime\edg.xml"/>
        <type-files value="sumo_files/realtime\type.xml"/>
    </input>

    <output>
        <output-file value="sumo_files/realtime\simple_nw_se.net.xml"/>
    </output>

</netconvertConfiguration>
-->

<net version="1.20" junctionCornerDetail="5" limitTurnSpeed="5.50" xmlns:xsi="http://www.w3.org/2001/XMLSchema-instance" xsi:noNamespaceSchemaLocation="http://sumo.dlr.de/xsd/net_file.xsd">

    <location netOffset="25.00,25.00" convBoundary="0.00,0.00,50.00,50.00" origBoundary="-25.00,-25.00,25.00,25.00" projParameter="!"/>

    <type id="2L45" numLanes="2" speed="12.50"/>

    <edge id=":center_0" function="internal">
        <lane id=":center_0_0" index="0" speed="6.51" length="9.03" shape="20.20,35.40 19.85,32.95 18.80,31.20 17.05,30.15 14.60,29.80"/>
    </edge>
    <edge id=":center_1" function="internal">
        <lane id=":center_1_0" index="0" speed="12.50" length="20.80" shape="20.20,35.40 20.20,14.60"/>
        <lane id=":center_1_1" index="1" speed="12.50" length="20.80" shape="23.40,35.40 23.40,14.60"/>
    </edge>
    <edge id=":center_3" function="internal">
        <lane id=":center_3_0" index="0" speed="9.26" length="5.01" shape="23.40,35.40 24.11,30.44"/>
    </edge>
    <edge id=":center_4" function="internal">
        <lane id=":center_4_0" index="0" speed="3.65" length="1.44" shape="23.40,35.40 24.20,34.20"/>
    </edge>
    <edge id=":center_20" function="internal">
        <lane id=":center_20_0" index="0" speed="9.26" length="14.34" shape="24.11,30.44 24.15,30.15 26.40,26.40 30.15,24.15 35.40,23.40"/>
    </edge>
    <edge id=":center_21" function="internal">
        <lane id=":center_21_0" index="0" speed="3.65" length="3.23" shape="24.20,34.20 25.00,33.80 25.80,34.20 26.60,35.40"/>
    </edge>
    <edge id=":center_5" function="internal">
        <lane id=":center_5_0" index="0" speed="6.51" length="9.03" shape="35.40,29.80 32.95,30.15 31.20,31.20 30.15,32.95 29.80,35.40"/>
    </edge>
    <edge id=":center_6" function="internal">
        <lane id=":center_6_0" index="0" speed="12.50" length="20.80" shape="35.40,29.80 14.60,29.80"/>
        <lane id=":center_6_1" index="1" speed="12.50" length="20.80" shape="35.40,26.60 14.60,26.60"/>
    </edge>
    <edge id=":center_8" function="internal">
        <lane id=":center_8_0" index="0" speed="9.26" length="5.01" shape="35.40,26.60 30.44,25.89"/>
    </edge>
    <edge id=":center_9" function="internal">
        <lane id=":center_9_0" index="0" speed="3.65" length="1.44" shape="35.40,26.60 34.20,25.80"/>
    </edge>
    <edge id=":center_22" function="internal">
        <lane id=":center_22_0" index="0" speed="9.26" length="14.34" shape="30.44,25.89 30.15,25.85 26.40,23.60 24.15,19.85 23.40,14.60"/>
    </edge>
    <edge id=":center_23" function="internal">
        <lane id=":center_23_0" index="0" speed="3.65" length="3.23" shape="34.20,25.80 33.80,25.00 34.20,24.20 35.40,23.40"/>
    </edge>
    <edge id=":center_10" function="internal">
        <lane id=":center_10_0" index="0" speed="6.51" length="9.03" shape="29.80,14.60 30.15,17.05 31.20,18.80 32.95,19.85 35.40,20.20"/>
    </edge>
    <edge id=":center_11" function="internal">
        <lane id=":center_11_0" index="0" speed="12.50" length="20.80" shape="29.80,14.60 29.80,35.40"/>
        <lane id=":center_11_1" index="1" speed="12.50" length="20.80" shape="26.60,14.60 26.60,35.40"/>
    </edge>
    <edge id=":center_13" function="internal">
        <lane id=":center_13_0" index="0" speed="9.26" length="5.01" shape="26.60,14.60 25.89,19.56"/>
    </edge>
    <edge id=":center_14" function="internal">
        <lane id=":center_14_0" index="0" speed="3.65" length="1.44" shape="26.60,14.60 25.80,15.80"/>
    </edge>
    <edge id=":center_24" function="internal">
        <lane id=":center_24_0" index="0" speed="9.26" length="14.34" shape="25.89,19.56 25.85,19.85 23.60,23.60 19.85,25.85 14.60,26.60"/>
    </edge>
    <edge id=":center_25" function="internal">
        <lane id=":center_25_0" index="0" speed="3.65" length="3.23" shape="25.80,15.80 25.00,16.20 24.20,15.80 23.40,14.60"/>
    </edge>
    <edge id=":center_15" function="internal">
        <lane id=":center_15_0" index="0" speed="6.51" length="9.03" shape="14.60,20.20 17.05,19.85 18.80,18.80 19.85,17.05 20.20,14.60"/>
    </edge>
    <edge id=":center_16" function="internal">
        <lane id=":center_16_0" index="0" speed="12.50" length="20.80" shape="14.60,20.20 35.40,20.20"/>
        <lane id=":center_16_1" index="1" speed="12.50" length="20.80" shape="14.60,23.40 35.40,23.40"/>
    </edge>
    <edge id=":center_18" function="internal">
        <lane id=":center_18_0" index="0" speed="9.26" length="5.01" shape="14.60,23.40 19.56,24.11"/>
    </edge>
    <edge id=":center_19" function="internal">
        <lane id=":center_19_0" index="0" speed="3.65" length="1.44" shape="14.60,23.40 15.80,24.20"/>
    </edge>
    <edge id=":center_26" function="internal">
        <lane id=":center_26_0" index="0" speed="9.26" length="14.34" shape="19.56,24.11 19.85,24.15 23.60,26.40 25.85,30.15 26.60,35.40"/>
    </edge>
    <edge id=":center_27" function="internal">
        <lane id=":center_27_0" index="0" speed="3.65" length="3.23" shape="15.80,24.20 16.20,25.00 15.80,25.80 14.60,26.60"/>
    </edge>
    <edge id=":n1_0" function="internal">
        <lane id=":n1_0_0" index="0" speed="3.65" length="4.67" shape="26.60,50.00 25.80,51.20 25.00,51.60 24.20,51.20 23.40,50.00"/>
    </edge>
    <edge id=":n2_0" function="internal">
        <lane id=":n2_0_0" index="0" speed="3.65" length="4.67" shape="50.00,23.40 51.20,24.20 51.60,25.00 51.20,25.80 50.00,26.60"/>
    </edge>
    <edge id=":n3_0" function="internal">
        <lane id=":n3_0_0" index="0" speed="3.65" length="4.67" shape="23.40,0.00 24.20,-1.20 25.00,-1.60 25.80,-1.20 26.60,0.00"/>
    </edge>
    <edge id=":n4_0" function="internal">
        <lane id=":n4_0_0" index="0" speed="3.65" length="4.67" shape="0.00,26.60 -1.20,25.80 -1.60,25.00 -1.20,24.20 0.00,23.40"/>
    </edge>

    <edge id="center_to_east" from="center" to="n2" priority="-1" type="2L45">
        <lane id="center_to_east_0" index="0" speed="12.50" length="14.60" shape="35.40,20.20 50.00,20.20"/>
        <lane id="center_to_east_1" index="1" speed="12.50" length="14.60" shape="35.40,23.40 50.00,23.40"/>
    </edge>
    <edge id="center_to_north" from="center" to="n1" priority="-1" type="2L45">
        <lane id="center_to_north_0" index="0" speed="12.50" length="14.60" shape="29.80,35.40 29.80,50.00"/>
        <lane id="center_to_north_1" index="1" speed="12.50" length="14.60" shape="26.60,35.40 26.60,50.00"/>
    </edge>
    <edge id="center_to_south" from="center" to="n3" priority="-1" type="2L45">
        <lane id="center_to_south_0" index="0" speed="12.50" length="14.60" shape="20.20,14.60 20.20,0.00"/>
        <lane id="center_to_south_1" index="1" speed="12.50" length="14.60" shape="23.40,14.60 23.40,0.00"/>
    </edge>
    <edge id="center_to_west" from="center" to="n4" priority="-1" type="2L45">
        <lane id="center_to_west_0" index="0" speed="12.50" length="14.60" shape="14.60,29.80 0.00,29.80"/>
        <lane id="center_to_west_1" index="1" speed="12.50" length="14.60" shape="14.60,26.60 0.00,26.60"/>
    </edge>
    <edge id="east_to_center" from="n2" to="center" priority="-1" type="2L45">
        <lane id="east_to_center_0" index="0" speed="12.50" length="14.60" shape="50.00,29.80 35.40,29.80"/>
        <lane id="east_to_center_1" index="1" speed="12.50" length="14.60" shape="50.00,26.60 35.40,26.60"/>
    </edge>
    <edge id="north_to_center" from="n1" to="center" priority="-1" type="2L45">
        <lane id="north_to_center_0" index="0" speed="12.50" length="14.60" shape="20.20,50.00 20.20,35.40"/>
        <lane id="north_to_center_1" index="1" speed="12.50" length="14.60" shape="23.40,50.00 23.40,35.40"/>
    </edge>
    <edge id="south_to_center" from="n3" to="center" priority="-1" type="2L45">
        <lane id="south_to_center_0" index="0" speed="12.50" length="14.60" shape="29.80,0.00 29.80,14.60"/>
        <lane id="south_to_center_1" index="1" speed="12.50" length="14.60" shape="26.60,0.00 26.60,14.60"/>
    </edge>
    <edge id="west_to_center" from="n4" to="center" priority="-1" type="2L45">
        <lane id="west_to_center_0" index="0" speed="12.50" length="14.60" shape="0.00,20.20 14.60,20.20"/>
        <lane id="west_to_center_1" index="1" speed="12.50" length="14.60" shape="0.00,23.40 14.60,23.40"/>
    </edge>

    <tlLogic id="center" type="static" programID="0" offset="0">
        <phase duration="42" state="GGGggrrrrrGGGggrrrrr"/>
        <phase duration="3"  state="yyyyyrrrrryyyyyrrrrr"/>
        <phase duration="42" state="rrrrrGGGggrrrrrGGGgg"/>
        <phase duration="3"  state="rrrrryyyyyrrrrryyyyy"/>
    </tlLogic>

    <junction id="center" type="traffic_light" x="25.00" y="25.00" incLanes="north_to_center_0 north_to_center_1 east_to_center_0 east_to_center_1 south_to_center_0 south_to_center_1 west_to_center_0 west_to_center_1" intLanes=":center_0_0 :center_1_0 :center_1_1 :center_20_0 :center_21_0 :center_5_0 :center_6_0 :center_6_1 :center_22_0 :center_23_0 :center_10_0 :center_11_0 :center_11_1 :center_24_0 :center_25_0 :center_15_0 :center_16_0 :center_16_1 :center_26_0 :center_27_0" shape="18.60,35.40 31.40,35.40 31.84,33.18 32.40,32.40 33.18,31.84 34.18,31.51 35.40,31.40 35.40,18.60 33.18,18.16 32.40,17.60 31.84,16.82 31.51,15.82 31.40,14.60 18.60,14.60 18.16,16.82 17.60,17.60 16.82,18.16 15.82,18.49 14.60,18.60 14.60,31.40 16.82,31.84 17.60,32.40 18.16,33.18 18.49,34.18">
        <request index="0"  response="00000000000000000000" foes="00000000000011000000" cont="0"/>
        <request index="1"  response="01000000000100000000" foes="01111110000111000000" cont="0"/>
        <request index="2"  response="01000000000100000000" foes="01111110000111000000" cont="0"/>
        <request index="3"  response="01000001100100000000" foes="01110001101111000000" cont="1"/>
        <request index="4"  response="01000001100000000000" foes="01000001100000000000" cont="1"/>
        <request index="5"  response="00000001100000000000" foes="00000001100000000000" cont="0"/>
        <request index="6"  response="00000011100000001111" foes="11000011100000001111" cont="0"/>
        <request index="7"  response="00000011100000001111" foes="11000011100000001111" cont="0"/>
        <request index="8"  response="00110011100000001110" foes="00110111100000001110" cont="1"/>
        <request index="9"  response="00110000000000001000" foes="00110000000000001000" cont="1"/>
        <request index="10" response="00000000000000000000" foes="00110000000000000000" cont="0"/>
        <request index="11" response="01000000000100000000" foes="01110000000111111000" cont="0"/>
        <request index="12" response="01000000000100000000" foes="01110000000111111000" cont="0"/>
        <request index="13" response="01000000000100000110" foes="11110000000111000110" cont="1"/>
        <request index="14" response="00000000000100000110" foes="00000000000100000110" cont="1"/>
        <request index="15" response="00000000000000000110" foes="00000000000000000110" cont="0"/>
        <request index="16" response="00000011110000001110" foes="00000011111100001110" cont="0"/>
        <request index="17" response="00000011110000001110" foes="00000011111100001110" cont="0"/>
        <request index="18" response="00000011100011001110" foes="00000011100011011110" cont="1"/>
        <request index="19" response="00000010000011000000" foes="00000010000011000000" cont="1"/>
    </junction>
    <junction id="n1" type="priority" x="25.00" y="50.00" incLanes="center_to_north_0 center_to_north_1" intLanes=":n1_0_0" shape="25.00,50.00 31.40,50.00 25.00,50.00">
        <request index="0" response="0" foes="0" cont="0"/>
    </junction>
    <junction id="n2" type="priority" x="50.00" y="25.00" incLanes="center_to_east_0 center_to_east_1" intLanes=":n2_0_0" shape="50.00,25.00 50.00,18.60 50.00,25.00">
        <request index="0" response="0" foes="0" cont="0"/>
    </junction>
    <junction id="n3" type="priority" x="25.00" y="0.00" incLanes="center_to_south_0 center_to_south_1" intLanes=":n3_0_0" shape="25.00,0.00 18.60,0.00 25.00,0.00">
        <request index="0" response="0" foes="0" cont="0"/>
    </junction>
    <junction id="n4" type="priority" x="0.00" y="25.00" incLanes="center_to_west_0 center_to_west_1" intLanes=":n4_0_0" shape="0.00,25.00 0.00,31.40 0.00,25.00">
        <request index="0" response="0" foes="0" cont="0"/>
    </junction>

    <junction id=":center_20_0" type="internal" x="24.11" y="30.44" incLanes=":center_3_0 south_to_center_0 south_to_center_1" intLanes=":center_6_0 :center_6_1 :center_8_0 :center_9_0 :center_10_0 :center_11_0 :center_11_1 :center_16_0 :center_16_1 :center_18_0"/>
    <junction id=":center_21_0" type="internal" x="24.20" y="34.20" incLanes=":center_4_0 east_to_center_0 south_to_center_0 south_to_center_1 west_to_center_1" intLanes=":center_5_0 :center_11_0 :center_11_1 :center_18_0"/>
    <junction id=":center_22_0" type="internal" x="30.44" y="25.89" incLanes=":center_8_0 west_to_center_0 west_to_center_1" intLanes=":center_1_0 :center_1_1 :center_3_0 :center_11_0 :center_11_1 :center_13_0 :center_14_0 :center_15_0 :center_16_0 :center_16_1"/>
    <junction id=":center_23_0" type="internal" x="34.20" y="25.80" incLanes=":center_9_0 north_to_center_1 south_to_center_0 west_to_center_0 west_to_center_1" intLanes=":center_3_0 :center_10_0 :center_16_0 :center_16_1"/>
    <junction id=":center_24_0" type="internal" x="25.89" y="19.56" incLanes=":center_13_0 north_to_center_0 north_to_center_1" intLanes=":center_0_0 :center_1_0 :center_1_1 :center_6_0 :center_6_1 :center_8_0 :center_16_0 :center_16_1 :center_18_0 :center_19_0"/>
    <junction id=":center_25_0" type="internal" x="25.80" y="15.80" incLanes=":center_14_0 east_to_center_1 north_to_center_0 north_to_center_1 west_to_center_0" intLanes=":center_1_0 :center_1_1 :center_8_0 :center_15_0"/>
    <junction id=":center_26_0" type="internal" x="19.56" y="24.11" incLanes=":center_18_0 east_to_center_0 east_to_center_1" intLanes=":center_1_0 :center_1_1 :center_3_0 :center_4_0 :center_5_0 :center_6_0 :center_6_1 :center_11_0 :center_11_1 :center_13_0"/>
    <junction id=":center_27_0" type="internal" x="15.80" y="24.20" incLanes=":center_19_0 east_to_center_0 east_to_center_1 north_to_center_0 south_to_center_1" intLanes=":center_0_0 :center_6_0 :center_6_1 :center_13_0"/>

    <connection from="center_to_east" to="east_to_center" fromLane="1" toLane="1" via=":n2_0_0" dir="t" state="M"/>
    <connection from="center_to_north" to="north_to_center" fromLane="1" toLane="1" via=":n1_0_0" dir="t" state="M"/>
    <connection from="center_to_south" to="south_to_center" fromLane="1" toLane="1" via=":n3_0_0" dir="t" state="M"/>
    <connection from="center_to_west" to="west_to_center" fromLane="1" toLane="1" via=":n4_0_0" dir="t" state="M"/>
    <connection from="east_to_center" to="center_to_north" fromLane="0" toLane="0" via=":center_5_0" tl="center" linkIndex="5" dir="r" state="o"/>
    <connection from="east_to_center" to="center_to_west" fromLane="0" toLane="0" via=":center_6_0" tl="center" linkIndex="6" dir="s" state="o"/>
    <connection from="east_to_center" to="center_to_west" fromLane="1" toLane="1" via=":center_6_1" tl="center" linkIndex="7" dir="s" state="o"/>
    <connection from="east_to_center" to="center_to_south" fromLane="1" toLane="1" via=":center_8_0" tl="center" linkIndex="8" dir="l" state="o"/>
    <connection from="east_to_center" to="center_to_east" fromLane="1" toLane="1" via=":center_9_0" tl="center" linkIndex="9" dir="t" state="o"/>
    <connection from="north_to_center" to="center_to_west" fromLane="0" toLane="0" via=":center_0_0" tl="center" linkIndex="0" dir="r" state="O"/>
    <connection from="north_to_center" to="center_to_south" fromLane="0" toLane="0" via=":center_1_0" tl="center" linkIndex="1" dir="s" state="O"/>
    <connection from="north_to_center" to="center_to_south" fromLane="1" toLane="1" via=":center_1_1" tl="center" linkIndex="2" dir="s" state="O"/>
    <connection from="north_to_center" to="center_to_east" fromLane="1" toLane="1" via=":center_3_0" tl="center" linkIndex="3" dir="l" state="o"/>
    <connection from="north_to_center" to="center_to_north" fromLane="1" toLane="1" via=":center_4_0" tl="center" linkIndex="4" dir="t" state="o"/>
    <connection from="south_to_center" to="center_to_east" fromLane="0" toLane="0" via=":center_10_0" tl="center" linkIndex="10" dir="r" state="O"/>
    <connection from="south_to_center" to="center_to_north" fromLane="0" toLane="0" via=":center_11_0" tl="center" linkIndex="11" dir="s" state="O"/>
    <connection from="south_to_center" to="center_to_north" fromLane="1" toLane="1" via=":center_11_1" tl="center" linkIndex="12" dir="s" state="O"/>
    <connection from="south_to_center" to="center_to_west" fromLane="1" toLane="1" via=":center_13_0" tl="center" linkIndex="13" dir="l" state="o"/>
    <connection from="south_to_center" to="center_to_south" fromLane="1" toLane="1" via=":center_14_0" tl="center" linkIndex="14" dir="t" state="o"/>
    <connection from="west_to_center" to="center_to_south" fromLane="0" toLane="0" via=":center_15_0" tl="center" linkIndex="15" dir="r" state="o"/>
    <connection from="west_to_center" to="center_to_east" fromLane="0" toLane="0" via=":center_16_0" tl="center" linkIndex="16" dir="s" state="o"/>
    <connection from="west_to_center" to="center_to_east" fromLane="1" toLane="1" via=":center_16_1" tl="center" linkIndex="17" dir="s" state="o"/>
    <connection from="west_to_center" to="center_to_north" fromLane="1" toLane="1" via=":center_18_0" tl="center" linkIndex="18" dir="l" state="o"/>
    <connection from="west_to_center" to="center_to_west" fromLane="1" toLane="1" via=":center_19_0" tl="center" linkIndex="19" dir="t" state="o"/>

    <connection from=":center_0" to="center_to_west" fromLane="0" toLane="0" dir="r" state="M"/>
    <connection from=":center_1" to="center_to_south" fromLane="0" toLane="0" dir="s" state="M"/>
    <connection from=":center_1" to="center_to_south" fromLane="1" toLane="1" dir="s" state="M"/>
    <connection from=":center_3" to="center_to_east" fromLane="0" toLane="1" via=":center_20_0" dir="l" state="m"/>
    <connection from=":center_20" to="center_to_east" fromLane="0" toLane="1" dir="l" state="M"/>
    <connection from=":center_4" to="center_to_north" fromLane="0" toLane="1" via=":center_21_0" dir="t" state="m"/>
    <connection from=":center_21" to="center_to_north" fromLane="0" toLane="1" dir="t" state="M"/>
    <connection from=":center_5" to="center_to_north" fromLane="0" toLane="0" dir="r" state="M"/>
    <connection from=":center_6" to="center_to_west" fromLane="0" toLane="0" dir="s" state="M"/>
    <connection from=":center_6" to="center_to_west" fromLane="1" toLane="1" dir="s" state="M"/>
    <connection from=":center_8" to="center_to_south" fromLane="0" toLane="1" via=":center_22_0" dir="l" state="m"/>
    <connection from=":center_22" to="center_to_south" fromLane="0" toLane="1" dir="l" state="M"/>
    <connection from=":center_9" to="center_to_east" fromLane="0" toLane="1" via=":center_23_0" dir="t" state="m"/>
    <connection from=":center_23" to="center_to_east" fromLane="0" toLane="1" dir="t" state="M"/>
    <connection from=":center_10" to="center_to_east" fromLane="0" toLane="0" dir="r" state="M"/>
    <connection from=":center_11" to="center_to_north" fromLane="0" toLane="0" dir="s" state="M"/>
    <connection from=":center_11" to="center_to_north" fromLane="1" toLane="1" dir="s" state="M"/>
    <connection from=":center_13" to="center_to_west" fromLane="0" toLane="1" via=":center_24_0" dir="l" state="m"/>
    <connection from=":center_24" to="center_to_west" fromLane="0" toLane="1" dir="l" state="M"/>
    <connection from=":center_14" to="center_to_south" fromLane="0" toLane="1" via=":center_25_0" dir="t" state="m"/>
    <connection from=":center_25" to="center_to_south" fromLane="0" toLane="1" dir="t" state="M"/>
    <connection from=":center_15" to="center_to_south" fromLane="0" toLane="0" dir="r" state="M"/>
    <connection from=":center_16" to="center_to_east" fromLane="0" toLane="0" dir="s" state="M"/>
    <connection from=":center_16" to="center_to_east" fromLane="1" toLane="1" dir="s" state="M"/>
    <connection from=":center_18" to="center_to_north" fromLane="0" toLane="1" via=":center_26_0" dir="l" state="m"/>
    <connection from=":center_26" to="center_to_north" fromLane="0" toLane="1" dir="l" state="M"/>
    <connection from=":center_19" to="center_to_west" fromLane="0" toLane="1" via=":center_27_0" dir="t" state="m"/>
    <connection from=":center_27" to="center_to_west" fromLane="0" toLane="1" dir="t" state="M"/>
    <connection from=":n1_0" to="north_to_center" fromLane="0" toLane="1" dir="t" state="M"/>
    <connection from=":n2_0" to="east_to_center" fromLane="0" toLane="1" dir="t" state="M"/>
    <connection from=":n3_0" to="south_to_center" fromLane="0" toLane="1" dir="t" state="M"/>
    <connection from=":n4_0" to="west_to_center" fromLane="0" toLane="1" dir="t" state="M"/>

</net>
