<?xml version='1.0' encoding='utf-8'?>
<configuration>
    <input>
        <net-file value="grid_network.net.xml" />
        <route-files value="route.rou.xml" />
    </input>
    <time>
        <begin value="0" />
        <step-length value="0.0333" />
    </time>
    <processing>
        <lateral-resolution value="0.8" />
        <collision.action value="warn" />
        <collision.mingap-factor value="0" />
    </processing>
    <report>
        <verbose value="true" />
        <no-step-log value="true" />
    </report>
</configuration>